# ********************************************************************************
# *  Copyright: National ICT Australia,  2007 - 2010                             *
# *  Developed at the ATP lab, Networked Systems research theme                  *
# *  Author(s): Athanassios Boulis, Dimosthenis Pediaditakis, Yuriy Tselishchev  *
# *  This file is distributed under the terms in the attached LICENSE file.      *
# *  If you do not find this file, copies can be found by writing to:            *
# *                                                                              *
# *      NICTA, Locked Bag 9013, Alexandria, NSW 1435, Australia                 *
# *      Attention:  License Inquiry.                                            *
# *                                                                              *
# *******************************************************************************/

[General]

# ==========================================================
# Always include the main Castalia.ini file
# ==========================================================
include ../Parameters/Castalia.ini

sim-time-limit = 1001s  # 50 secs of data + 1 sec of MAC setup

SN.numNodes = 8

SN.wirelessChannel.onlyStaticNodes = false
SN.wirelessChannel.sigma = 0
SN.wirelessChannel.bidirectionalSigma = 0

SN.wirelessChannel.pathLossMapFile = "../Parameters/WirelessChannel/BANmodels/pathLossMap.txt"
SN.wirelessChannel.temporalModelParametersFile = "../Parameters/WirelessChannel/BANmodels/TemporalModel.txt"

SN.node[*].Communication.Radio.RadioParametersFile = "../Parameters/Radio/BANRadio.txt"
SN.node[*].Communication.Radio.symbolsForRSSI = 16
SN.node[*].Communication.Radio.TxOutputPower = "-15dBm"

#SN.node[*].Communication.MAC.collectTraceInfo = true
#SN.node[*].Application.collectTraceInfo = true

SN.node[*].Communication.MACProtocolName = "StaticGTS802154"
SN.node[0].Communication.MAC.isFFD = true
SN.node[0].Communication.MAC.isPANCoordinator = true
SN.node[*].Communication.MAC.phyDataRate = 1024
SN.node[*].Communication.MAC.phyBitsPerSymbol = 2
SN.node[*].Communication.MAC.requestGTS = 3

SN.node[*].ResourceManager.baselineNodePower = 0

SN.node[*].ApplicationName = "ThroughputTest"
SN.node[*].Application.startupDelay = 1  	#wait for 1sec before starting sending packets
SN.node[0].Application.latencyHistogramMax = 600
SN.node[0].Application.latencyHistogramBuckets = 30
SN.node[*].Application.collectTraceInfo = true
SN.node[*].Application.packet_rate = 5
SN.node[*].Application.constantDataPayload = 100



SN.field_x = 2	# meters
SN.field_y = 2	# meters
SN.field_z = 2
SN.node[*].MobilityManager.updateInterval = 100
SN.node[*].MobilityManagerName = "LineMobilityManager"
#sink yaobu
SN.node[0].xCoor = 1
SN.node[0].yCoor = 1
SN.node[0].zCoor = 0  
SN.node[0].MobilityManager.xCoorDestination = 1
SN.node[0].MobilityManager.yCoorDestination = 1
SN.node[0].MobilityManager.zCoorDestination = 0.3
SN.node[0].MobilityManager.speed = 0.3
#head
SN.node[1].xCoor = 1
SN.node[1].yCoor = 1.8
SN.node[1].zCoor = 0  
SN.node[1].MobilityManager.xCoorDestination = 1
SN.node[1].MobilityManager.yCoorDestination = 1.95
SN.node[1].MobilityManager.zCoorDestination = 0.25
SN.node[1].MobilityManager.speed = 0.2915
#heart
SN.node[2].xCoor = 0.8
SN.node[2].yCoor = 1.6
SN.node[2].zCoor = 0  
SN.node[2].MobilityManager.xCoorDestination = 0.8
SN.node[2].MobilityManager.yCoorDestination = 1.75
SN.node[2].MobilityManager.zCoorDestination = 0.3
SN.node[2].MobilityManager.speed = 0.3354
#hand
SN.node[3].xCoor = 1.2
SN.node[3].yCoor = 1.5
SN.node[3].zCoor = 0 
SN.node[3].MobilityManager.xCoorDestination = 1.2
SN.node[3].MobilityManager.yCoorDestination = 1.65
SN.node[3].MobilityManager.zCoorDestination = 0.4
SN.node[3].MobilityManager.speed = 0.4272
#thigh
SN.node[4].xCoor = 0.85
SN.node[4].yCoor = 0.8
SN.node[4].zCoor = 0
SN.node[4].MobilityManager.xCoorDestination = 0.7
SN.node[4].MobilityManager.yCoorDestination = 0.9
SN.node[4].MobilityManager.zCoorDestination = 0.25
SN.node[4].MobilityManager.speed = 0.2739
#foot
SN.node[5].xCoor = 1.1
SN.node[5].yCoor = 0.2
SN.node[5].zCoor = 0
SN.node[5].MobilityManager.xCoorDestination = 1.2
SN.node[5].MobilityManager.yCoorDestination = 0.5
SN.node[5].MobilityManager.zCoorDestination = 0.4
SN.node[5].MobilityManager.speed = 0.5099
#knee
SN.node[6].xCoor = 1.1
SN.node[6].yCoor = 0.6
SN.node[6].zCoor = 0
SN.node[6].MobilityManager.xCoorDestination = 1.2
SN.node[6].MobilityManager.yCoorDestination = 0.8
SN.node[6].MobilityManager.zCoorDestination = 0.4
SN.node[6].MobilityManager.speed = 0.4583
#hand
SN.node[7].xCoor = 0.8
SN.node[7].yCoor = 0.9
SN.node[7].zCoor = 0
SN.node[7].MobilityManager.xCoorDestination = 0.7
SN.node[7].MobilityManager.yCoorDestination = 1.3
SN.node[7].MobilityManager.zCoorDestination = 0.3
SN.node[7].MobilityManager.speed = 0.5099

[Config TMAC]
SN.node[*].Communication.MACProtocolName = "TMAC"
SN.node[*].Communication.MAC.phyDataRate = 1024

[Config ZigBeeMAC]
SN.node[*].Communication.MACProtocolName = "StaticGTS802154"
SN.node[0].Communication.MAC.isFFD = true
SN.node[0].Communication.MAC.isPANCoordinator = true
SN.node[*].Communication.MAC.phyDataRate = 1024
SN.node[*].Communication.MAC.phyBitsPerSymbol = 2

[Config GTSon]
SN.node[*].Communication.MAC.requestGTS = 3

[Config GTSoff]
SN.node[*].Communication.MAC.requestGTS = 0


[Config noTemporal]
SN.wirelessChannel.temporalModelParametersFile = ""

[Config BaselineMAC]
SN.node[*].Communication.MACProtocolName = "BaselineBANMac"
SN.node[*].Communication.MAC.phyDataRate = 1024
SN.node[0].Communication.MAC.isHub = true
SN.node[*].Communication.MAC.macBufferSize = 48

[Config pollingON]
SN.node[*].Communication.MAC.pollingEnabled = true

[Config pollingOFF]
SN.node[*].Communication.MAC.pollingEnabled = false

[Config naivePolling]
SN.node[*].Communication.MAC.naivePollingScheme = true

[Config minScheduled]
SN.node[*].Communication.MAC.scheduledAccessLength = 2

[Config maxScheduled]
SN.node[*].Communication.MAC.scheduledAccessLength = 6
SN.node[*].Communication.MAC.RAP1Length = 2

[Config varyScheduled]
SN.node[*].Communication.MAC.scheduledAccessLength = ${schedSlots=6,5,4,3}
SN.node[*].Communication.MAC.RAP1Length = ${RAPslots=2,7,12,17}
constraint = $schedSlots * 5 + $RAPslots == 32

[Config varyRAPlength]
#SN.node[*].Communication.MAC.RAP1Length = ${RAPlength=1,6,11,16,21}
SN.node[*].Communication.MAC.RAP1Length = ${RAPlength=2,3,4,5,6,7,8,9,10,11,12,13,14,15,16,17,18,19,20,21,22}

[Config oneNodeVaryRate]
SN.node[3].Application.packet_rate = ${rate=20,40,60,80,100}

[Config oneNodeVaryPower]
SN.node[3].Communication.Radio.TxOutputPower = ${power="-10dBm","-12dBm","-15dBm","-20dBm"}

[Config oneNodeVaryTxNum]
SN.node[3].Communication.MAC.macMaxFrameRetries = ${retries=1,2,3}

[Config allNodesVaryRate]
#SN.node[*].Application.packet_rate = ${rate=20,40,60,80,100,120}
SN.node[*].Application.packet_rate = ${rate=14,16,18,20,22,24,26,28,30}
#SN.node[*].Application.packet_rate = ${rate=100,120,140,160}

[Config setRate]
SN.node[*].Application.packet_rate = 25

[Config setPower]
SN.node[*].Communication.Radio.TxOutputPower = "-15dBm"

[Config allNodesVaryPower]
SN.node[*].Communication.Radio.TxOutputPower = ${power="-10dBm","-12dBm","-15dBm","-20dBm"}

[Config varyReTxNum]
SN.node[*].Communication.MAC.maxPacketTries = ${pktTries=1,2,3,4}
